#!/bin/bash
#
#################################################
# batch settings for CCLM run on mistral at DKRZ
#################################################
#SBATCH --job-name=sp_cclm
#SBATCH --partition=compute
#SBATCH --nodes=2
#SBATCH --ntasks=48
#SBATCH --exclusive
#SBATCH --time=00-00:30:00
#SBATCH --output=sp_cclm.o%j
#SBATCH --error=sp_cclm.o%j
#SBATCH --account=

# ulimit: the setting of the stack size instead of using "ulimit -s unlimited",
#         together with the --propagate=STACK in the "srun" command (see below),
#         speeds up the job considerably; in my test cases between 10% and 15%;
#         the value 102400 is the default maximum stack size on MISTRAL
#
# ulimit -s 102400

#
export FORT_BUFFERED=true
export decfort_dump_flag=true
#
export MXM_LOG_LEVEL=ERROR

set -e

#### !!!! Adjust this directory !!!!
CCLMDIR=/m2data2/yycheng/CCLM/src/cclm #编译出的CCKN位置
CASEDIR=/m2data2/yycheng/cptp_test/ERA5_to_cclm_cptp #处理此次CASE的文件夹
DATADIR=/m2data2/yycheng/data_stage/cptp # 所有运行数据的位置

cd ${CASEDIR}/log_cclm
# clean the directory
rm -rf I* Y*

NPX=12
NPY=8
NPIO=0
NP1=`expr $NPX \* $NPY`
NP=`expr $NP1 + $NPIO`
stophours=264
#################################################
# cat together the INPUT*-files
#################################################

cat > INPUT_ORG << end_input_org
 &LMGRID
  startlat_tot  = -14.76000, startlon_tot  = -21.73000,
  pollat = 57.0, pollon = -91.5, 
  dlon=0.08200, dlat=0.08200, 
  ie_tot=531, je_tot=361, ke_tot=40,
 /END
 &RUNCTL
  dt=30,
  hstart=0,   hstop=${stophours},
  ydate_ini='2008071400', ydate_end='2008072500',
  nprocx= ${NPX}, nprocy= ${NPY}, nprocio=${NPIO},
  hincmxt=24, hincmxu=24,
  itype_calendar=0,
  lreorder = .FALSE.,  lreproduce = .TRUE.,
  ldatatypes = .FALSE.,
  nboundlines = 3, 
  ncomm_type = 3,
  lartif_data = .FALSE.,
  ldump_ascii = .FALSE.,
 /END
 &TUNING
  wichfakt=0.,
  tur_len=500.,
  v0snow=20.,
  tkhmin=0.35,
  tkmmin=1.,
  rlam_heat=0.5249,
  mu_rain=0.5,
  entr_sc=0.0002,
  uc1=0.0626,
  fac_rootdp2=0.9000,
  soilhyd=1.6200
 /END
end_input_org

cat > INPUT_IO  << end_input_io
 &IOCTL
  lasync_io=.FALSE., yform_read='ncdf',  
  yform_restart='ncdf',
  lbdclim=.TRUE.,
  nhour_restart=264,264,264,
  ydir_restart='${DATADIR}/cptp_out/cclm/restarts/'
  ytunit_restart='d',
  ngribout=3,
  ! 估计不起作用的一段
  yncglob_title="CPTP CASE1 DOWNSCALING FROM ERA5",
  yncglob_source = "${CCLMDIR}/bin/cclm.exe",
  yncglob_project_id = "-",
  yncglob_experiment_id ="cptp case1",
  ncglob_realization = 1,
  yncglob_contact = "NJU",
  yncglob_references = "http://www.clm-community.eu/",

 /END
 &DATABASE
 /END
 &GRIBIN
  lbdana = .FALSE.,
  lana_qi = .FALSE.,
  llb_qi = .FALSE.,
  lana_qr_qs = .FALSE.,
  llb_qr_qs = .FALSE.,
  lana_qg = .FALSE.,
  llb_qg = .FALSE.,
  lana_rho_snow  = .FALSE.,
  lan_t_s    = .FALSE.,
  lan_t_so0  = .TRUE.,
  lan_t_snow = .TRUE.,
  lan_t_cl   = .TRUE.,
  lan_w_snow = .TRUE.,
  lan_w_i    = .TRUE.,
  lan_w_cl   = .TRUE.,
  lan_vio3   = .TRUE.,
  lan_hmo3   = .TRUE.,
  lan_plcov  = .TRUE.,
  lan_lai    = .TRUE.,
  lan_rootdp = .TRUE.,
  lan_rho_snow= .FALSE.,
  ydirini='${DATADIR}/cptp_out/int2lm',
  lchkini=.TRUE.,
  hincbound=3.,
  ydirbd='${DATADIR}/cptp_out/int2lm',
  lchkbd =.FALSE.,
  ytunitbd='d',
 /END
 &GRIBOUT
  yform_write='ncdf',
  hcomb=0,72,6,72,${stophours},3,
  yvarml='FRESHSNW','PP','QC','QI','QR','QS','QV','QV_S','T','T_S','T_SNOW','T_SO','U','V','W','W_I',
         'W_SNOW','W_SO',
  yvarpl=' ', 
  yvarzl=' ',
  luvmasspoint=.FALSE.,
  lcheck = .FALSE.,
  lwrite_const=.TRUE.,
  ydir='${DATADIR}/cptp_out/cclm/out01/',
  ytunit='d',
 /END
 &GRIBOUT
  yform_write='ncdf',
  hcomb=0,72,6,72,${stophours},3,
  yvarml='RAIN_CON','SNOW_CON','RAIN_GSP','SNOW_GSP','TOT_PREC',
         'ALB_RAD','ALHFL_S','ASHFL_S','ASOB_T','ASOB_S',
         'ATHB_S','ATHB_T',
         'CLCT','DURSUN','PMSL','PS','QV_2M','T_2M','U_10M',
         'V_10M','RELHUM_2M',
         'AEVAP_S','AUMFL_S','AVMFL_S','CLCH','CLCL','CLCM',
         'H_SNOW','RUNOFF_G','RUNOFF_S',
  yvarpl=' ',
  yvarzl=' ',
  luvmasspoint=.TRUE.,
  lcheck = .FALSE.,
  lwrite_const=.TRUE.,
  ydir='${DATADIR}/cptp_out/cclm/out02/',
  ytunit='d',
 /END
 &GRIBOUT
  yform_write='ncdf',
  hcomb=0,72,6,72,${stophours},3,
  yvarml=' ',
  yvarpl='FI','QV','T','U','V','RELHUM',
  plev=200.,500.,850.,925.,
  yvarzl=' ',
  luvmasspoint=.TRUE.,
  lcheck = .FALSE.,
  lwrite_const=.TRUE.,
  ydir='${DATADIR}/cptp_out/cclm/out03/',
  ytunit='d',
 /END
end_input_io

cat > INPUT_DYN << end_input_dyn
 &DYNCTL
  l2tls = .TRUE.,                  ! 2 time-level RK scheme
  ldiabf_lh = .TRUE.,
  ldyn_bbc = .TRUE.,
  lexpl_lbc = .TRUE.,
  ldyn_bbc = .FALSE.,
  rlwidth = 100000.,               ! 10-15 times the grid mesh size in meter
  lspecnudge=.FALSE.,alpha_sn=0.05,
  l_diff_Smag = .TRUE.,
  iadv_order = 3,
  itype_fast_waves = 2,
  itype_bbc_w = 114,
  isc_sn=6, jsc_sn=6,
  !  yvarsn='U     ','V    ',
  y_scalar_advect='BOTT2',
  nrdtau = 6,
  lhordiff = .TRUE.,

 /END
end_input_dyn

cat > INPUT_PHY << end_input_phy
&PHYCTL
  lgsp=.TRUE.,
  itype_gscp=3,
  lrad=.TRUE.,
  hincrad=1.0,
  ico2_rad=2,
  lforest = .TRUE.,
  ltur = .TRUE.,
  limpltkediff = .FALSE.,
  lexpcor = .FALSE.,
  lsoil = .TRUE.,
  lmulti_snow = .FALSE.,
  itype_heatcond = 2,
  itype_evsl = 3,
  itype_trvg = 2,
  lmelt = .TRUE.,
  lmelt_var = .TRUE.,
  lmulti_layer = .TRUE.,
  ke_soil = 3,
  czml_soil = 0.035, 0.175, 0.640, 1.775,
  czbot_w_so=4.0,
  lconv = .TRUE.,
  nincconv = 2,
  itype_conv = 0,
  lconf_avg = .TRUE.,
  lsso=.TRUE.,
  llake=.FALSE.,
  lseaice=.FALSE.,
  itype_albedo=2,
/END
    
end_input_phy

cat > INPUT_DIA << end_input_dia
 &DIACTL
  !  n0meanval=0, nincmeanval=24,
  !  lgplong=.FALSE., lgpshort=.TRUE., lgpspec=.FALSE.,
  !  n0gp=0,      hincgp=6.0,
  !  stationlist_tot= 0, 0, 52.220, 14.135, 'Lindenberg_Obs',
  !                  0, 0, 53.633,  9.983, 'Hamburg',
 /END
end_input_dia

cat > INPUT_INI << end_input_ini
 &INICTL
  ndfi=2,
  tspan=  600.0, taus=  600.0,
  dtbak=15.0, dtfwd=15.0,
 /END
end_input_ini

cat > INPUT_ASS << end_input_ass
 &NUDGING
  lnudge  =.FALSE.,
 /END
end_input_ass

#################################################
# run the program
#################################################

echo ------------------------------- start CCLM  ----------------------------------
# ${SPDIR}/src/cclm/bin/cclm.exe
mpirun -np ${NP} ${CCLMDIR}/bin/cclm.exe
# srun -l --propagate=STACK --cpu_bind=verbose,cores --distribution=block:cyclic  ${SPDIR}/src/cclm/bin/cclm.exe
echo ------------------------------- CCLM finished  -------------------------------

cat YUSPECIF YUCHKDAT > OUTPUT
